popcdpsvc1
swhqswd2
stgecomdpapiauth
popcdpsvc2
flightplanning-amstage
vndcdf-fs0000-gma3-vip
srpstage
ualaki-pndceocsvcs
aopcpcargoweb02
pndcapisvc2
techops1
supportctx
pndcapigw
mdmrequestair
popcdpauth1
fieldglassit
vpn1
achipcargoweb01
nq-oamohsdmz
quarantine
ndcrptest3
ualaki-airporthubops-qa-enfsvc
gwafp
dmshr
ualaki-sndceapiauth1
aopcpcargoweb01
ualaki-pfoxtms-authsvc
apindc
ualaki-unitedservicesstage
ualaki-adams-pdpgw
cwhqf5d2
fom
apppt-extcsm
mail
cwhqvw01
auth
uaanywhereopcdev
rptest2
ualaki-resplan-oqa
poamohsdmzinternet
ualaki-usourceqa
cwhqf5u4
techopsservices-gateway-qa
winterops-oqa
nndcdf-0df019-vgw401
peoplesoftgateway
ualaki-techopsservices-gateway
ualaki-pndcapisvc2-beta
sndcservice3
gw2
ualaki-safety
ualaki-igelctx
dmshr-amstage
uasuppliers
aopcvcse1
pndcapiauth3
esftwtcdev
ucbadm.stage
bam-oqa
sndceservice1
mentorcliq-oqa
rptest1
ualaki-mysite
pct-ext-dpauth
directaccesshqs
nmfo
ualaki-crewops
cwhqvw03
stagetechopsredirect
pecomdpapigw
cwhqvw02
ualaki-gsefm
seftuat
cwhqf5u2
ualaki-scsmcdpauth
ualaki-scsmcdpgw
ualaki-flightplanning
skynet-amstage
ualaki-prendcapiauth
dart-oqa
coupa
ualaki-scollabapigw
foodservicesstage
qualityfirst
sndceapigw1
dphpapmqa
flightplanning1-amstage
ualaki-inflightreceiptsqa
qoamotddmzqa
apiportal-qa
stagetechops1
rptest3
techopsservices-gateway
pualdpgw1
vpn3
csshis
erespassrider
popcdpgw1
pfoxtms-authsvc
btml
rasdev
ualaki-gstarmac-dev
eresnew-oqa-aka
turnmetrics-dpapi-qa
ualaki-fabid-opreprod
ualaki-turnmetrics-dpapi
rptest4
uaeoc
ualaki-powerbi
turnmetrics-dpauth-qa
ualaki-insight-mobile-qa
mdmrequestplt
gw
hrivrprddpopc
sndcapiven1
ualaki-pndcapiauth3
popceocsvcs
mdmauth
appptqa-extcsm
ualaki-sharepoint
vtuldf-d1bc91-f5dmzdns02
raptor-opreprod
ualaki-ucbadm
ualaki-prendcapigw
mdmrequestven
spotfiremobile-oqa
ualaki-aflyer-oqa
eresnew-oqa
mail2
ualaki-usource
customerwebcid
turnmetrics-dpauth
pcf
benefits
vcld14gpaznwb01-fe
ualaki-resvdi
cargoctx
resvdi
ualaki-sndceservice1
ualaki-adams-sdpgw
sss
aasp
ualaki-eresnew-opreprod
abs
stage.csshis
mfa-admin
vcld14gpaznwb02-fe
beta.sss
k3xy7-origin-ccs
ualaki-sndcapiven1
ualaki-acarsservices-wsi-qa
planplus
pndcapigw1
glintdashboard
aentuiccbeta
fltwinds
swhqcpu1
esftstg
atw
unitedservices2
ucbadm
insight-mobile-qa
unitedservicesperf
nmfadev
ndcrptest2
ualaki-myflight-qa
nmfa
aasp-dp-qa
401k
ejabberd-dev
cwhqf5d1
cwhqvw04
ualaki-biometric-sdpgw
swhqswd1
crew-access-data
unitedservicesuat
custportal
ualaki-fabid
ndcrptest1
ualaki-worldserver
collabapigw
collabapiauth
ualaki-wysectx
qualityfirst-oqa
employeeres-opreprod
ualaki-dstemp
np-oamohsdmz
ualaki-pndcapigw2
turnmetrics-dpapi
toaudit360
collab
srp
cwhqb2b
mdmrequest
ualaki-portal
connectctx
prodperf.css
shareptstg10
cwhqb2b1
mentorcliq
ualaki-eresnew-oqa
ualaki-poamotddmzinternet
srp-oqa
owp.msgqa
resctx
helphub
inflightreceiptsstage
mfa-selfservice
ualaki-sndceapigw2
rdweb
glintsurvey
inflightreceiptsqa
ualaki-usourcedev
nq-oamotddmz
eresnew-opreprod
ualaki-esftpci
esftpci
ualaki-stgecomdpapigw
spamcop
metrics
apindc-qa
skype
ualaki-resplan
ualaki-dart-oqa
ualaki-sndceapiauth2
eresnewpassrider
pecomdpapiauth
ualaki-dart
uia-oqa
ualaki-itsupport
pinetdpweb
esft
ccs-stage
ualmilestone
ualaki-mail
vopcprtapp00
uaanywhereopc
unitedcargobilling-stage
sndceapigw2
ualaki-crl
ualaki-insight-mobile
ualaki-sndceapiauth3
ualaki-techopsservices-gateway-qa
aemforms-oqa
ethicsandcompliancehub
customerwebcid-qa
login
airvault-oqa
ucs
ualaki-gstarmac-stage
pct-ext-dpauth-preprod
workspace
dmz-esp-amstage
vpninp
kr
pars-oqa
vcld24rpanuap01-fe
ualaki-services
gwusa
ual-login-amstage
directaccessopc
ualaki-permabids-oqa
pars
ualaki-prefoxtms-authsvc
esftwtc
hubweb
wysectx
acarsservices-wsi
ualaki-team
apiportal
takeoff
ualaki-reports
ualaki-qoamohsdmzqa
sp2010mig
uapac
sndceservice2
beta.csshis
toaudit360-oqa
absstage
customerwebcid-stage
ualaki-pct-ext-dpapi-qa
esftdev
cdn-ft
ualaki-crl2
ualaki-stgecomdpapiauth
insight-mobile
esftwtcpci
igelctx
directaccess
np-oamotddmz
prendcapigw
ualaki-search
f5vpn-ndc
cwhqf5d3
hrivrprddpndc
ualaki-pecomdpapigw
myidtravel
localhost
pndcapiauth2
pndcapigw3
eresnewpasssrider-oqa
ualaki-mars
iom2-odev
myflight-dev
ualaki-myflight
tmpuasuppliers
cas
ualaki-esftwtcdev
agentui
whqinet1
concur
bidding-oqa
ualaki-paperlessw2
airporthubops-qa-enfsvc
ualaki-sndceservice2
agentuistage
myidtravel-united
agentuiccprod
ndc-qafe-ejabberd-f5
itsupport
ualaki-oos
appptstg-extndc
mdmrequestfa
ndc-prdfe-ejabberd-f5
flightplanning2-amstage
ualaki-bam-oqa
ualaki-ddi
cwhqpv
ualaki-coe
vndcdf-cw0000-evf3-vip
ualaki-prefoxtms-enfsvc
vpn3test
ualaki-pndcapigw
ualaki-aflyer
boeingfleet-oqa
pct-ext-dpapi-preprod
vopcecommprd
ualaki-scollabapiauth
seismic
ualaki-turnmetrics-dpauth
ualaki-spe
pualaki-refoxtms-authsvc
agentuiperf
ualaki-bidding
uat.cas
ualaki-poamohsdmzinternet
ualaki-unitedshop
esftwtcstg
ualaki-mars-oqa
pndcapiauth1
dart-new
pref-oqa
apppt-exttul
stgecomdpapigw
agentuiqa
ualaki-crewpayaws-oqa
uwms-prod
cwhqf5u3
uapac-oqa
merchadmin
cwhqf5u1
ualaki-bagtools-oqa
perf.csshis
pndcapigw2
ualaki-sndcdpauthservice
unitedservicesprodperf
techopsredirect
mfa-selfservice-oqa
csmcgidspss
gogo.owp
m.safety-stage
swhqcpu2
uasitsuppliers
unitedcargobilling
m.customer360
gw161
kms-mffdev
nmfodev
paperlessemployee
stage.cas
cwhqf5d4
ualaki-pct-ext-dpauth-qa
smtptul
agentuipreprod
skytrack-qa
crewops
ualaki-planplus
ualaki-training
ualaki-esftstg
travellingemployees
gw1
custportalstage
ualaki-qoamotddmzqa
achipcargoweb02
gw10
qualityfirststage-tmp
ualaki-pfoxtms-enfsvc
m.customer360-stage
icelink-oqa
campdt
swhqswd3
ualaki-myflight-stage
dmz-esp-new
foqa
ualaki-sndcapigw
srp-stage
ualaki-pndcapiauth2
worldserverdev
perf.css
pndcapisvc2-beta
sndcapigw
stage.sss
apihub.unitedservices
qualityfirststage
emonsnmp
gw57
hrivrpdpauth
airporthubops-enfsvc
permabids-oqa
ualaki-pct-ext-dpapi
ucbadm.preprod
retailportal
remotectx
cwhqpv02
iom2-oqa
pndcapiauth
mars-oqa
volare
foxtms-oqa
idm-pwdexp
eres-opreprod
bam
smm
datadog
efb
ebso
ualaki-records
flyingtogether
cargoivr-sdp.auth
noc
gogo.owp-stage
etamobile-stage
search
raptor
nmao
app-ft
spampatrol
ft
appd
amts
animaltravel
pfoxtms-enfsvc
peoplesoft-phire-oqa
ionmobile-oqa
winterops
ionmobile
stage.css
mysite
myflight-qa
mdm
records
gogo.owp-qa
ualaki-pecomdpapiauth
enterpriseenrollment
demisto
ccs-test
servicenow
wingtips
vcld14gpaznwb03-fe
flightplanning1
ualaki-spwebsvcs
resplan-oqa
mars
appptqa-extndc
ualaki-pref-oqa
ualaki-esftdev
asl
urocemployeeportal-training-oqa
cargoivr-opcdp.auth
mdmconsole
cateringportalstage
raven-ext.qdpgw
usource
ualaki-flightplanning2
pualdpauth1
aflyer
nmaodev
ndcnsext.citrix
ualaki-k2
portal
customer360-amstage
peoplesoft
cwhqb2b2
uat.fom
recordsstage
cwhqpv01
acarsservices-wsi-qa
ualaki-cargoivr-sndcdp2.auth
ssd
idm-login
offers-oqa
aflyer-opreprod
shortlinks
techops
www.unitedbenefits
amts-oqa
sndceapiauth3
powerbi
qualityfirstprod-tmp
ualaki-dstemp-qa
collaborate
ualaki-ucbadm.stage
app1
safety
idm-pwdexp-oqa
urocemployeeportal
appptstg-extcsm
eres
ualaki-airporthubops-qa-authsvc
sales
peoplesoft-phire
ualaki-sndceapigw3
dynafuel
ivr-qa
fdps
qa.cas
dresstechops
volare-oqa
analytics-oqa
customer360-fed
pcsweb-oqa
spamwatch
ualaki-noc
f5vpn-qa
gstarmac-qa
preprod.css
bigpanda
crl
bidding
ddi
rfp-oqa
bravo
contactcenter-preprod
sndceapiauth2
sndceapiauth1
ualaki-flightplanning1
spe
pndceocsvcs
wingtips-opreprod
techops-oqa
aasp-oqa
spotfiremobile
aws.svcgw.stg.useast1.pcr
idm-warning-oqa
sndcdpauthservice
unitedservices
scollabapigw
ebso.dev
partsordering
crl2
perf.sss
customer360-fed-oqa
ualaki-nmaodev
prendcapiauth
ualaki-pref
scsmcdpgw
scqt-oqa
inflightreceipts
perf.cas
ctp
aws.svcgw.stg.useast2.pcr
ccs
brg
vpnip
wfm
coe
raven-ext.sdpgw
k2
ualaki-brg
aws.svcgw.useast2.pcr
flightplanning
biometric-sdpgw
pualapisvc2
aws.svcgw.preprod.useast2.pcr
cargoivr-ndcdp.auth
ualaki-remotectx
signon
ualaki-pct-ext-dpauth
aws.svcgw.preprod.useast1.pcr
etamobile
ualaki-techops-oqa
pdpauthservice
eoc
myflight-stage
scollabapiauth
appdpre
poamotddmzinternet
adfs
worldserver
flightplanning2
sharepoint
unitedservicesbeta
airporthubops-authsvc
eres-qa
pref
ualaki-pndcapiauth
resplan
damage
pilotfatigueanalyzer-oqa
mysitestage
cargoivr-pdp.auth
ualaki-bidding-oqa
app10-oqa
scsmcdpauth
scqt
crewpayregister
unitedservicespreprod
contactcenter
aflyer-oqa
idm-login-oqa
ualaki-permabids
skytrack-opreprod
uaanywherehqs
airporthubops-qa-authsvc
prefoxtms-enfsvc
ualaki-cargoivr-sndcdp1.auth
pilotfatigueanalyzer
unitedservicesstageao
aws.svcgw.dev.useast2.pcr
dart
customer360
vpn
moveteam
contactcenter-oqa
tpg-papigw
reports
idm-authquestions
app1-qa
etaempl
prefoxtms-authsvc
udcnsext.citrix
quality
my
vtuldf-d1bc76-f5dmzdns01
foodservices
pct-ext-dpapi-qa
oos
gstarmac-stage
ualaki-my
ualaki-sndcapiauth
permabids
uat.csshis
unitedshop
mt
spwebsvcs
paperlessw2
mercer
apppt-extndc
eresnew
myflight
raven-ext.pdpgw
ctp-oqa
btml-oqa
aws.svcgw.qa.useast2.pcr
resplan-opreprod
cargoivr-sndcdp2.auth
login-qa
pcsweb
employeeres
asap
fabid
rfp
timetracker
teamstage
signon-oqa
exm
services
pct-ext-dpapi
nexgenweb.dev
adams-sdpgw
contactcenter-staging
mobi
partsordering-oqa
sndceapigw3
m.safety
foxtms
ualaki-esft
unitedservicesstage
team
cargoivr-sndcdp1.auth
mgrtoolbox
sndcapiauth
qoamohsdmzqa
portalstage
iom
ualaki-kms-mffdev
www.kr
servicesstage
usourcedev
owp.msg
uauatsuppliers
agentuibeta
aws.svcgw.qa.useast1.pcr
adams-pdpgw
cloudsecdocs
gstarmac-dev
urocemployeeportal-oqa
tpg-sapigw
ualaki-nq-oamotddmz
ebso.qa
c3
app11-oqa
ualaki-techops
adfsdev
myinfo
pct-ext-dpauth-qa
usourceqa
gstarmac
www
prodperf.csshis
schedulesource
nndcdf-0df014-vgw400
ualaki-m.safety
stageao.css
ao.unitedservices
ualaki-raven-ext.qdpgw
ualaki-cargoivr-ndcdp.auth
palm
ao.css
ualaki-raven-ext.pdpgw
antivirus
vndcdfgpapjmp01.global
ualaki-raven-ext.sdpgw
aometrics
unitederp
unitedservicesqa
pilotrecords
myzpa
aws.svcgw.useast1.pcr
erespassrider-oqa
ualaki-gstarmac
iom-oqa
app10
app11
unitedtmp.intranet
ualaki-eresnew
epm
brand
coc
cheshire
uma
ualaki-m.safety-stage
wiz
ahi
cad
training
etamobile-qa
atw-dev.awscloud
vndcdfgpapjwu01.global
pilotrecordsreportsrp
mobile.analytics
aws.svcgw.dev.useast1.pcr
prodperf.sss
bynder
vndcdfgpapjp01.global
vndcdfgpapjdp01.global
vndcdfgpapjae01.global
ualaki-ucbadm.preprod
ualaki-rfp
unitedbenefits
